<?xml version="1.0" encoding="UTF-8"?>

<!-- generated on 10/09/15 12:08:19 by SUMO netconvert Version 0.22.0
<?xml version="1.0" encoding="UTF-8"?>

<configuration xmlns:xsi="http://www.w3.org/2001/XMLSchema-instance" xsi:noNamespaceSchemaLocation="http://sumo.dlr.de/xsd/netconvertConfiguration.xsd">

    <input>
        <osm-files value="zone3.osm"/>
    </input>

    <output>
        <output-file value="zone3.net.xml"/>
    </output>

    <projection>
        <proj.utm value="true"/>
    </projection>

</configuration>
-->

<net version="0.13" xmlns:xsi="http://www.w3.org/2001/XMLSchema-instance" xsi:noNamespaceSchemaLocation="http://sumo.dlr.de/xsd/net_file.xsd">

    <location netOffset="-373152.63,-4063402.77" convBoundary="0.00,0.00,6966.45,2312.23" origBoundary="-4.420348,36.707913,-4.342289,36.728752" projParameter="+proj=utm +zone=30 +ellps=WGS84 +datum=WGS84 +units=m +no_defs"/>

    <edge id=":-10028_0" function="internal">
        <lane id=":-10028_0_0" index="0" speed="13.89" length="6.02" shape="3340.78,2021.36 3339.58,2021.56 3338.43,2022.23 3337.33,2023.35 3336.29,2024.94"/>
    </edge>
    <edge id=":-10028_1" function="internal">
        <lane id=":-10028_1_0" index="0" speed="13.89" length="6.62" shape="3340.78,2021.36 3334.16,2021.21"/>
    </edge>
    <edge id=":-10028_2" function="internal">
        <lane id=":-10028_2_0" index="0" speed="13.89" length="2.41" shape="3340.78,2021.36 3339.56,2020.51 3339.17,2019.67"/>
    </edge>
    <edge id=":-10028_6" function="internal">
        <lane id=":-10028_6_0" index="0" speed="13.89" length="2.41" shape="3339.17,2019.67 3339.60,2018.86 3340.85,2018.06"/>
    </edge>
    <edge id=":-10028_3" function="internal">
        <lane id=":-10028_3_0" index="0" speed="13.89" length="6.62" shape="3334.23,2017.92 3340.85,2018.06"/>
    </edge>
    <edge id=":-10028_4" function="internal">
        <lane id=":-10028_4_0" index="0" speed="13.89" length="5.70" shape="3334.23,2017.92 3336.58,2018.40 3337.70,2019.74 3337.63,2021.29"/>
    </edge>
    <edge id=":-10028_5" function="internal">
        <lane id=":-10028_5_0" index="0" speed="13.89" length="2.41" shape="3334.23,2017.92 3335.45,2018.77 3335.85,2019.60"/>
    </edge>
    <edge id=":-10028_7" function="internal">
        <lane id=":-10028_7_0" index="0" speed="13.89" length="3.92" shape="3337.63,2021.29 3337.61,2021.91 3336.29,2024.94"/>
    </edge>
    <edge id=":-10028_8" function="internal">
        <lane id=":-10028_8_0" index="0" speed="13.89" length="2.41" shape="3335.85,2019.60 3335.42,2020.42 3334.16,2021.21"/>
    </edge>
    <edge id=":-10030_0" function="internal">
        <lane id=":-10030_0_0" index="0" speed="13.89" length="6.66" shape="3290.44,2020.26 3283.78,2020.12"/>
    </edge>
    <edge id=":-10030_1" function="internal">
        <lane id=":-10030_1_0" index="0" speed="13.89" length="5.75" shape="3290.44,2020.26 3288.04,2019.77 3286.91,2018.44 3287.00,2016.89"/>
    </edge>
    <edge id=":-10030_2" function="internal">
        <lane id=":-10030_2_0" index="0" speed="13.89" length="2.41" shape="3290.44,2020.26 3289.22,2019.41 3288.83,2018.58"/>
    </edge>
    <edge id=":-10030_6" function="internal">
        <lane id=":-10030_6_0" index="0" speed="13.89" length="3.96" shape="3287.00,2016.89 3287.04,2016.26 3288.43,2013.23"/>
    </edge>
    <edge id=":-10030_7" function="internal">
        <lane id=":-10030_7_0" index="0" speed="13.89" length="2.41" shape="3288.83,2018.58 3289.26,2017.76 3290.52,2016.96"/>
    </edge>
    <edge id=":-10030_3" function="internal">
        <lane id=":-10030_3_0" index="0" speed="13.89" length="6.08" shape="3283.85,2016.82 3285.05,2016.61 3286.22,2015.95 3287.34,2014.82 3288.43,2013.23"/>
    </edge>
    <edge id=":-10030_4" function="internal">
        <lane id=":-10030_4_0" index="0" speed="13.89" length="6.66" shape="3283.85,2016.82 3290.52,2016.96"/>
    </edge>
    <edge id=":-10030_5" function="internal">
        <lane id=":-10030_5_0" index="0" speed="13.89" length="2.41" shape="3283.85,2016.82 3285.07,2017.67 3285.47,2018.50"/>
    </edge>
    <edge id=":-10030_8" function="internal">
        <lane id=":-10030_8_0" index="0" speed="13.89" length="2.41" shape="3285.47,2018.50 3285.04,2019.32 3283.78,2020.12"/>
    </edge>
    <edge id=":-10052_0" function="internal">
        <lane id=":-10052_0_0" index="0" speed="13.89" length="6.20" shape="3265.83,2167.41 3261.11,2163.40"/>
    </edge>
    <edge id=":-10052_1" function="internal">
        <lane id=":-10052_1_0" index="0" speed="13.89" length="2.41" shape="3265.83,2167.41 3265.08,2166.14 3265.06,2165.21"/>
    </edge>
    <edge id=":-10052_6" function="internal">
        <lane id=":-10052_6_0" index="0" speed="13.89" length="2.41" shape="3265.06,2165.21 3265.79,2164.65 3267.26,2164.44"/>
    </edge>
    <edge id=":-10052_2" function="internal">
        <lane id=":-10052_2_0" index="0" speed="13.89" length="4.78" shape="3263.66,2161.30 3267.26,2164.44"/>
    </edge>
    <edge id=":-10052_3" function="internal">
        <lane id=":-10052_3_0" index="0" speed="13.89" length="2.41" shape="3263.66,2161.30 3263.81,2162.78 3263.44,2163.62"/>
    </edge>
    <edge id=":-10052_7" function="internal">
        <lane id=":-10052_7_0" index="0" speed="13.89" length="2.41" shape="3263.44,2163.62 3262.54,2163.83 3261.11,2163.40"/>
    </edge>
    <edge id=":-10052_4" function="internal">
        <lane id=":-10052_4_0" index="0" speed="13.89" length="5.11" shape="3260.50,2167.74 3261.55,2166.78 3262.00,2165.74 3261.85,2164.61 3261.11,2163.40"/>
    </edge>
    <edge id=":-10052_5" function="internal">
        <lane id=":-10052_5_0" index="0" speed="13.89" length="7.64" shape="3260.50,2167.74 3263.03,2166.09 3265.00,2164.99 3266.41,2164.44 3267.26,2164.44"/>
    </edge>
    <edge id=":-10066_0" function="internal">
        <lane id=":-10066_0_0" index="0" speed="13.89" length="4.82" shape="3314.02,2271.52 3312.57,2271.83 3311.69,2271.55 3311.39,2270.68 3311.66,2269.22"/>
    </edge>
    <edge id=":-10610_0" function="internal">
        <lane id=":-10610_0_0" index="0" speed="13.89" length="12.21" shape="3053.99,2099.21 3052.69,2099.95 3051.17,2101.88 3049.46,2104.99 3047.54,2109.29"/>
    </edge>
    <edge id=":-10610_1" function="internal">
        <lane id=":-10610_1_0" index="0" speed="13.89" length="14.12" shape="3053.99,2099.21 3050.54,2100.08 3047.47,2101.58 3044.53,2103.46 3041.47,2105.46"/>
    </edge>
    <edge id=":-10610_2" function="internal">
        <lane id=":-10610_2_0" index="0" speed="13.89" length="2.41" shape="3053.99,2099.21 3052.66,2098.54 3052.15,2097.78"/>
    </edge>
    <edge id=":-10610_9" function="internal">
        <lane id=":-10610_9_0" index="0" speed="13.89" length="2.41" shape="3052.15,2097.78 3052.46,2096.91 3053.58,2095.93"/>
    </edge>
    <edge id=":-10610_3" function="internal">
        <lane id=":-10610_3_0" index="0" speed="13.89" length="15.50" shape="3039.74,2102.65 3043.00,2100.58 3046.40,2098.54 3049.93,2096.88 3053.58,2095.93"/>
    </edge>
    <edge id=":-10610_4" function="internal">
        <lane id=":-10610_4_0" index="0" speed="13.89" length="10.63" shape="3039.74,2102.65 3045.54,2099.79 3048.77,2099.94 3048.96,2100.85"/>
    </edge>
    <edge id=":-10610_5" function="internal">
        <lane id=":-10610_5_0" index="0" speed="13.89" length="2.41" shape="3039.74,2102.65 3041.22,2102.70 3042.01,2103.19"/>
    </edge>
    <edge id=":-10610_10" function="internal">
        <lane id=":-10610_10_0" index="0" speed="13.89" length="8.77" shape="3048.96,2100.85 3049.44,2103.11 3047.54,2109.29"/>
    </edge>
    <edge id=":-10610_11" function="internal">
        <lane id=":-10610_11_0" index="0" speed="13.89" length="2.41" shape="3042.01,2103.19 3042.09,2104.11 3041.47,2105.46"/>
    </edge>
    <edge id=":-10610_6" function="internal">
        <lane id=":-10610_6_0" index="0" speed="13.89" length="7.51" shape="3044.49,2108.03 3045.23,2105.64 3044.97,2104.41 3043.72,2104.35 3041.47,2105.46"/>
    </edge>
    <edge id=":-10610_7" function="internal">
        <lane id=":-10610_7_0" index="0" speed="13.89" length="15.60" shape="3044.49,2108.03 3046.85,2102.94 3049.15,2099.23 3051.40,2096.89 3053.58,2095.93"/>
    </edge>
    <edge id=":-10610_8" function="internal">
        <lane id=":-10610_8_0" index="0" speed="13.89" length="4.81" shape="3044.49,2108.03 3045.73,2107.20 3046.65,2107.14 3047.25,2107.83 3047.54,2109.29"/>
    </edge>
    <edge id=":-10642_0" function="internal">
        <lane id=":-10642_0_0" index="0" speed="13.89" length="4.82" shape="2912.71,2245.37 2911.26,2245.74 2910.38,2245.49 2910.04,2244.63 2910.26,2243.16"/>
    </edge>
    <edge id=":-14798_0" function="internal">
        <lane id=":-14798_0_0" index="0" speed="27.78" length="0.10" shape="840.06,1454.15 840.05,1454.15"/>
        <lane id=":-14798_0_1" index="1" speed="27.78" length="0.10" shape="839.86,1450.86 839.85,1450.86"/>
    </edge>
    <edge id=":-14798_2" function="internal">
        <lane id=":-14798_2_0" index="0" speed="27.78" length="2.41" shape="839.86,1450.86 838.57,1450.11 838.11,1449.31"/>
    </edge>
    <edge id=":-14798_6" function="internal">
        <lane id=":-14798_6_0" index="0" speed="27.78" length="2.41" shape="838.11,1449.31 838.47,1448.46 839.65,1447.56"/>
    </edge>
    <edge id=":-14798_3" function="internal">
        <lane id=":-14798_3_0" index="0" speed="27.78" length="0.10" shape="839.46,1444.27 839.45,1444.27"/>
        <lane id=":-14798_3_1" index="1" speed="27.78" length="0.10" shape="839.65,1447.56 839.65,1447.56"/>
    </edge>
    <edge id=":-14798_5" function="internal">
        <lane id=":-14798_5_0" index="0" speed="27.78" length="2.41" shape="839.65,1447.56 840.94,1448.31 841.40,1449.11"/>
    </edge>
    <edge id=":-14798_7" function="internal">
        <lane id=":-14798_7_0" index="0" speed="27.78" length="2.41" shape="841.40,1449.11 841.04,1449.96 839.85,1450.86"/>
    </edge>
    <edge id=":-14976_0" function="internal">
        <lane id=":-14976_0_0" index="0" speed="27.78" length="36.42" shape="823.64,1263.40 817.86,1269.56 811.44,1276.67 805.05,1283.82 799.42,1290.11"/>
        <lane id=":-14976_0_1" index="1" speed="27.78" length="36.42" shape="821.26,1261.11 815.42,1267.35 808.82,1274.64 802.27,1281.97 796.56,1288.35"/>
    </edge>
    <edge id=":-14976_2" function="internal">
        <lane id=":-14976_2_0" index="0" speed="27.78" length="2.41" shape="821.26,1261.11 819.81,1261.42 818.93,1261.15"/>
    </edge>
    <edge id=":-14976_5" function="internal">
        <lane id=":-14976_5_0" index="0" speed="27.78" length="2.41" shape="818.93,1261.15 818.62,1260.28 818.89,1258.81"/>
    </edge>
    <edge id=":-14976_3" function="internal">
        <lane id=":-14976_3_0" index="0" speed="27.78" length="36.47" shape="792.30,1283.33 798.08,1277.17 804.45,1269.97 810.80,1262.75 816.52,1256.52"/>
        <lane id=":-14976_3_1" index="1" speed="27.78" length="36.47" shape="794.19,1286.11 800.05,1279.87 806.58,1272.50 813.09,1265.11 818.89,1258.81"/>
    </edge>
    <edge id=":-14980_0" function="internal">
        <lane id=":-14980_0_0" index="0" speed="27.78" length="0.22" shape="892.10,1187.80 891.90,1188.01"/>
        <lane id=":-14980_0_1" index="1" speed="27.78" length="0.22" shape="889.67,1185.56 889.57,1185.67"/>
    </edge>
    <edge id=":-14980_2" function="internal">
        <lane id=":-14980_2_0" index="0" speed="27.78" length="2.41" shape="889.67,1185.56 888.23,1185.92 887.34,1185.67"/>
    </edge>
    <edge id=":-14980_6" function="internal">
        <lane id=":-14980_6_0" index="0" speed="27.78" length="2.41" shape="887.34,1185.67 887.01,1184.80 887.24,1183.33"/>
    </edge>
    <edge id=":-14980_3" function="internal">
        <lane id=":-14980_3_0" index="0" speed="27.78" length="0.10" shape="884.90,1181.00 884.90,1181.00"/>
        <lane id=":-14980_3_1" index="1" speed="27.78" length="0.10" shape="887.24,1183.33 887.24,1183.33"/>
    </edge>
    <edge id=":-14980_5" function="internal">
        <lane id=":-14980_5_0" index="0" speed="27.78" length="2.41" shape="887.24,1183.33 888.70,1183.04 889.57,1183.33"/>
    </edge>
    <edge id=":-14980_7" function="internal">
        <lane id=":-14980_7_0" index="0" speed="27.78" length="2.41" shape="889.57,1183.33 889.86,1184.21 889.57,1185.67"/>
    </edge>
    <edge id=":-14982_0" function="internal">
        <lane id=":-14982_0_0" index="0" speed="27.78" length="4.66" shape="922.97,1160.99 918.94,1162.88"/>
        <lane id=":-14982_0_1" index="1" speed="27.78" length="4.66" shape="921.16,1158.24 916.79,1160.38"/>
    </edge>
    <edge id=":-14982_2" function="internal">
        <lane id=":-14982_2_0" index="0" speed="20.83" length="5.17" shape="912.49,1155.37 914.34,1150.54"/>
    </edge>
    <edge id=":-14982_3" function="internal">
        <lane id=":-14982_3_0" index="0" speed="27.78" length="5.49" shape="912.49,1155.37 917.54,1152.73"/>
        <lane id=":-14982_3_1" index="1" speed="27.78" length="5.49" shape="914.64,1157.87 919.35,1155.49"/>
    </edge>
    <edge id=":-14982_5" function="internal">
        <lane id=":-14982_5_0" index="0" speed="27.78" length="2.41" shape="914.64,1157.87 916.12,1157.69 916.97,1158.05"/>
    </edge>
    <edge id=":-14982_6" function="internal">
        <lane id=":-14982_6_0" index="0" speed="27.78" length="2.41" shape="916.97,1158.05 917.19,1158.94 916.79,1160.38"/>
    </edge>
    <edge id=":-15004_0" function="internal">
        <lane id=":-15004_0_0" index="0" speed="13.89" length="4.82" shape="732.56,1179.61 731.21,1178.97 730.68,1178.22 730.97,1177.34 732.07,1176.34"/>
    </edge>
    <edge id=":-15006_0" function="internal">
        <lane id=":-15006_0_0" index="0" speed="13.89" length="6.38" shape="833.98,1164.19 832.67,1164.65 831.82,1165.66 831.44,1167.20 831.52,1169.28"/>
    </edge>
    <edge id=":-15006_1" function="internal">
        <lane id=":-15006_1_0" index="0" speed="13.89" length="8.01" shape="833.98,1164.19 826.42,1166.83"/>
    </edge>
    <edge id=":-15006_2" function="internal">
        <lane id=":-15006_2_0" index="0" speed="13.89" length="7.64" shape="833.98,1164.19 831.87,1164.16 830.29,1163.47 829.23,1162.11 828.68,1160.09"/>
    </edge>
    <edge id=":-15006_3" function="internal">
        <lane id=":-15006_3_0" index="0" speed="13.89" length="4.99" shape="825.99,1163.55 827.31,1163.19 828.20,1162.49 828.66,1161.46 828.68,1160.09"/>
    </edge>
    <edge id=":-15006_4" function="internal">
        <lane id=":-15006_4_0" index="0" speed="13.89" length="4.97" shape="825.99,1163.55 828.09,1163.68 829.72,1164.68 830.22,1165.50"/>
    </edge>
    <edge id=":-15006_5" function="internal">
        <lane id=":-15006_5_0" index="0" speed="13.89" length="2.41" shape="825.99,1163.55 827.33,1164.21 827.84,1164.98"/>
    </edge>
    <edge id=":-15006_6" function="internal">
        <lane id=":-15006_6_0" index="0" speed="13.89" length="4.04" shape="830.22,1165.50 830.86,1166.55 831.52,1169.28"/>
    </edge>
    <edge id=":-15006_7" function="internal">
        <lane id=":-15006_7_0" index="0" speed="13.89" length="2.41" shape="827.84,1164.98 827.54,1165.85 826.42,1166.83"/>
    </edge>
    <edge id=":-15008_0" function="internal">
        <lane id=":-15008_0_0" index="0" speed="13.89" length="5.09" shape="762.24,1178.41 761.94,1177.03 761.27,1176.12 760.23,1175.66 758.82,1175.67"/>
    </edge>
    <edge id=":-15008_1" function="internal">
        <lane id=":-15008_1_0" index="0" speed="13.89" length="10.40" shape="762.24,1178.41 762.41,1175.49 763.40,1173.30 765.21,1171.83 767.85,1171.07"/>
    </edge>
    <edge id=":-15008_2" function="internal">
        <lane id=":-15008_2_0" index="0" speed="13.89" length="4.82" shape="762.24,1178.41 762.97,1177.11 763.77,1176.64 764.62,1176.99 765.53,1178.16"/>
    </edge>
    <edge id=":-15008_3" function="internal">
        <lane id=":-15008_3_0" index="0" speed="13.89" length="5.29" shape="768.27,1174.35 766.98,1174.73 766.09,1175.49 765.61,1176.64 765.53,1178.16"/>
    </edge>
    <edge id=":-15008_4" function="internal">
        <lane id=":-15008_4_0" index="0" speed="13.89" length="9.55" shape="768.27,1174.35 758.82,1175.67"/>
    </edge>
    <edge id=":-15008_5" function="internal">
        <lane id=":-15008_5_0" index="0" speed="13.89" length="2.41" shape="768.27,1174.35 766.94,1173.69 766.42,1172.92"/>
    </edge>
    <edge id=":-15008_12" function="internal">
        <lane id=":-15008_12_0" index="0" speed="13.89" length="2.41" shape="766.42,1172.92 766.72,1172.05 767.85,1171.07"/>
    </edge>
    <edge id=":-15008_6" function="internal">
        <lane id=":-15008_6_0" index="0" speed="13.89" length="6.42" shape="762.68,1168.58 763.21,1169.89 764.24,1170.75 765.79,1171.14 767.85,1171.07"/>
    </edge>
    <edge id=":-15008_7" function="internal">
        <lane id=":-15008_7_0" index="0" speed="13.89" length="10.05" shape="762.68,1168.58 763.44,1171.45 764.30,1173.35 765.05,1175.25 765.53,1178.16"/>
    </edge>
    <edge id=":-15008_8" function="internal">
        <lane id=":-15008_8_0" index="0" speed="13.89" length="9.23" shape="762.68,1168.58 762.86,1171.40 762.28,1173.52 760.93,1174.95 758.82,1175.67"/>
    </edge>
    <edge id=":-15008_9" function="internal">
        <lane id=":-15008_9_0" index="0" speed="13.89" length="9.61" shape="758.33,1172.41 767.85,1171.07"/>
    </edge>
    <edge id=":-15008_10" function="internal">
        <lane id=":-15008_10_0" index="0" speed="13.89" length="7.24" shape="758.33,1172.41 761.29,1172.39 763.48,1173.34 764.60,1174.86"/>
    </edge>
    <edge id=":-15008_11" function="internal">
        <lane id=":-15008_11_0" index="0" speed="13.89" length="2.41" shape="758.33,1172.41 759.67,1173.04 760.20,1173.79"/>
    </edge>
    <edge id=":-15008_13" function="internal">
        <lane id=":-15008_13_0" index="0" speed="13.89" length="3.47" shape="764.60,1174.86 764.90,1175.27 765.53,1178.16"/>
    </edge>
    <edge id=":-15008_14" function="internal">
        <lane id=":-15008_14_0" index="0" speed="13.89" length="2.41" shape="760.20,1173.79 759.92,1174.67 758.82,1175.67"/>
    </edge>
    <edge id=":-15010_0" function="internal">
        <lane id=":-15010_0_0" index="0" speed="13.89" length="4.82" shape="772.17,1267.47 771.44,1268.76 770.65,1269.23 769.79,1268.88 768.88,1267.71"/>
    </edge>
    <edge id=":-15012_0" function="internal">
        <lane id=":-15012_0_0" index="0" speed="13.89" length="5.97" shape="890.82,1160.09 889.38,1158.87 888.03,1158.04 886.77,1157.60 885.60,1157.55"/>
    </edge>
    <edge id=":-15012_1" function="internal">
        <lane id=":-15012_1_0" index="0" speed="13.89" length="6.33" shape="891.71,1155.88 885.60,1157.55"/>
    </edge>
    <edge id=":-15014_0" function="internal">
        <lane id=":-15014_0_0" index="0" speed="22.22" length="5.00" shape="902.55,1084.41 906.09,1087.94"/>
    </edge>
    <edge id=":-15014_1" function="internal">
        <lane id=":-15014_1_0" index="0" speed="18.06" length="5.55" shape="902.55,1084.41 902.89,1089.95"/>
    </edge>
    <edge id=":-15024_0" function="internal">
        <lane id=":-15024_0_0" index="0" speed="13.89" length="5.06" shape="818.82,1079.03 816.39,1074.59"/>
    </edge>
    <edge id=":-15024_1" function="internal">
        <lane id=":-15024_1_0" index="0" speed="13.89" length="4.96" shape="818.82,1079.03 818.84,1077.89 819.17,1076.79 819.81,1075.71 820.77,1074.67"/>
    </edge>
    <edge id=":-15030_0" function="internal">
        <lane id=":-15030_0_0" index="0" speed="13.89" length="5.02" shape="748.76,1072.63 747.45,1073.04 746.59,1073.77 746.18,1074.83 746.22,1076.21"/>
    </edge>
    <edge id=":-15030_1" function="internal">
        <lane id=":-15030_1_0" index="0" speed="13.89" length="6.20" shape="745.14,1070.10 746.22,1076.21"/>
    </edge>
    <edge id=":-15032_0" function="internal">
        <lane id=":-15032_0_0" index="0" speed="13.89" length="10.14" shape="730.57,996.14 731.97,998.78 732.77,1000.70 733.29,1002.71 733.82,1005.66"/>
    </edge>
    <edge id=":-15032_1" function="internal">
        <lane id=":-15032_1_0" index="0" speed="13.89" length="8.62" shape="730.57,996.14 731.69,998.73 731.96,1000.86 731.37,1002.52 729.92,1003.73"/>
    </edge>
    <edge id=":-15032_2" function="internal">
        <lane id=":-15032_2_0" index="0" speed="13.89" length="3.74" shape="728.40,1000.79 730.31,1000.29 731.85,1000.93 731.90,1001.02"/>
    </edge>
    <edge id=":-15032_3" function="internal">
        <lane id=":-15032_3_0" index="0" speed="13.89" length="2.41" shape="728.40,1000.79 729.88,1000.96 730.63,1001.50"/>
    </edge>
    <edge id=":-15032_4" function="internal">
        <lane id=":-15032_4_0" index="0" speed="13.89" length="5.08" shape="731.90,1001.02 733.02,1002.72 733.82,1005.66"/>
    </edge>
    <edge id=":-15032_5" function="internal">
        <lane id=":-15032_5_0" index="0" speed="13.89" length="2.41" shape="730.63,1001.50 730.64,1002.43 729.92,1003.73"/>
    </edge>
    <edge id=":-15034_0" function="internal">
        <lane id=":-15034_0_0" index="0" speed="13.89" length="4.82" shape="703.96,1017.13 702.48,1016.97 701.73,1016.42 701.72,1015.50 702.44,1014.20"/>
    </edge>
    <edge id=":-15036_0" function="internal">
        <lane id=":-15036_0_0" index="0" speed="13.89" length="2.59" shape="674.63,891.33 674.02,891.68 673.70,892.14 673.67,892.72 673.94,893.42"/>
    </edge>
    <edge id=":-15036_1" function="internal">
        <lane id=":-15036_1_0" index="0" speed="13.89" length="2.69" shape="671.70,892.71 672.37,892.46 672.97,892.49 673.49,892.81 673.94,893.42"/>
    </edge>
    <edge id=":-15038_0" function="internal">
        <lane id=":-15038_0_0" index="0" speed="22.22" length="5.89" shape="631.01,919.14 628.14,913.99"/>
    </edge>
    <edge id=":-15038_1" function="internal">
        <lane id=":-15038_1_0" index="0" speed="18.06" length="4.58" shape="631.01,919.14 630.77,917.81 631.40,916.42 632.60,915.22"/>
    </edge>
    <edge id=":-15038_2" function="internal">
        <lane id=":-15038_2_0" index="0" speed="22.22" length="2.41" shape="631.01,919.14 631.18,917.66 631.72,916.92"/>
    </edge>
    <edge id=":-15038_6" function="internal">
        <lane id=":-15038_6_0" index="0" speed="18.06" length="3.18" shape="632.60,915.22 632.88,914.95 635.21,913.41"/>
    </edge>
    <edge id=":-15038_7" function="internal">
        <lane id=":-15038_7_0" index="0" speed="22.22" length="2.41" shape="631.72,916.92 632.64,916.90 633.94,917.63"/>
    </edge>
    <edge id=":-15038_3" function="internal">
        <lane id=":-15038_3_0" index="0" speed="18.06" length="4.97" shape="630.98,912.30 631.83,913.35 632.82,913.89 633.95,913.91 635.21,913.41"/>
    </edge>
    <edge id=":-15038_4" function="internal">
        <lane id=":-15038_4_0" index="0" speed="22.22" length="6.10" shape="630.98,912.30 633.94,917.63"/>
    </edge>
    <edge id=":-15038_5" function="internal">
        <lane id=":-15038_5_0" index="0" speed="22.22" length="2.41" shape="630.98,912.30 630.90,913.78 630.41,914.56"/>
    </edge>
    <edge id=":-15038_8" function="internal">
        <lane id=":-15038_8_0" index="0" speed="22.22" length="2.41" shape="630.41,914.56 629.49,914.63 628.14,913.99"/>
    </edge>
    <edge id=":-15054_0" function="internal">
        <lane id=":-15054_0_0" index="0" speed="22.22" length="4.71" shape="519.92,709.88 519.25,708.82 518.38,708.14 517.33,707.82 516.07,707.89"/>
    </edge>
    <edge id=":-15054_1" function="internal">
        <lane id=":-15054_1_0" index="0" speed="22.22" length="2.41" shape="519.92,709.88 520.15,708.41 520.73,707.69"/>
    </edge>
    <edge id=":-15054_4" function="internal">
        <lane id=":-15054_4_0" index="0" speed="22.22" length="2.41" shape="520.73,707.69 521.65,707.72 522.92,708.50"/>
    </edge>
    <edge id=":-15054_2" function="internal">
        <lane id=":-15054_2_0" index="0" speed="22.22" length="4.88" shape="523.55,703.99 522.81,704.97 522.46,706.04 522.50,707.22 522.92,708.50"/>
    </edge>
    <edge id=":-15054_3" function="internal">
        <lane id=":-15054_3_0" index="0" speed="22.22" length="8.42" shape="523.55,703.99 516.07,707.89"/>
    </edge>
    <edge id=":-15086_0" function="internal">
        <lane id=":-15086_0_0" index="0" speed="22.22" length="0.81" shape="507.25,679.41 508.02,679.14"/>
    </edge>
    <edge id=":-15096_0" function="internal">
        <lane id=":-15096_0_0" index="0" speed="22.22" length="10.66" shape="519.40,675.59 521.24,678.06 522.62,679.86 523.87,681.73 525.36,684.42"/>
    </edge>
    <edge id=":-15096_1" function="internal">
        <lane id=":-15096_1_0" index="0" speed="22.22" length="10.99" shape="516.91,678.45 519.38,678.67 521.61,679.74 523.60,681.66 525.36,684.42"/>
    </edge>
    <edge id=":-15102_0" function="internal">
        <lane id=":-15102_0_0" index="0" speed="22.22" length="5.01" shape="502.44,682.46 503.26,677.52"/>
    </edge>
    <edge id=":-15102_1" function="internal">
        <lane id=":-15102_1_0" index="0" speed="22.22" length="5.05" shape="502.44,682.46 506.71,679.77"/>
    </edge>
    <edge id=":-15114_0" function="internal">
        <lane id=":-15114_0_0" index="0" speed="22.22" length="0.43" shape="513.55,627.34 513.47,627.76"/>
    </edge>
    <edge id=":-4200_0" function="internal">
        <lane id=":-4200_0_0" index="0" speed="13.89" length="4.82" shape="1525.32,2288.23 1525.24,2289.72 1524.74,2290.49 1523.82,2290.56 1522.48,2289.92"/>
    </edge>
    <edge id=":-4232_0" function="internal">
        <lane id=":-4232_0_0" index="0" speed="13.89" length="4.82" shape="1448.21,2247.72 1447.80,2249.15 1447.14,2249.79 1446.23,2249.65 1445.07,2248.72"/>
    </edge>
    <edge id=":-4240_0" function="internal">
        <lane id=":-4240_0_0" index="0" speed="13.89" length="1.30" shape="1424.01,2212.36 1423.69,2212.31 1423.37,2212.32 1423.06,2212.40 1422.76,2212.54"/>
    </edge>
    <edge id=":-4240_1" function="internal">
        <lane id=":-4240_1_0" index="0" speed="13.89" length="2.41" shape="1424.01,2212.36 1423.03,2211.24 1422.85,2210.34"/>
    </edge>
    <edge id=":-4240_4" function="internal">
        <lane id=":-4240_4_0" index="0" speed="13.89" length="2.41" shape="1422.85,2210.34 1423.46,2209.65 1424.87,2209.17"/>
    </edge>
    <edge id=":-4240_2" function="internal">
        <lane id=":-4240_2_0" index="0" speed="13.89" length="3.99" shape="1421.03,2209.74 1421.94,2209.28 1422.89,2209.04 1423.86,2209.00 1424.87,2209.17"/>
    </edge>
    <edge id=":-4240_3" function="internal">
        <lane id=":-4240_3_0" index="0" speed="13.89" length="2.41" shape="1421.03,2209.74 1422.51,2209.79 1423.30,2210.27"/>
    </edge>
    <edge id=":-4240_5" function="internal">
        <lane id=":-4240_5_0" index="0" speed="13.89" length="2.41" shape="1423.30,2210.27 1423.38,2211.19 1422.76,2212.54"/>
    </edge>
    <edge id=":-4268_0" function="internal">
        <lane id=":-4268_0_0" index="0" speed="13.89" length="4.82" shape="1490.96,2293.45 1490.75,2294.92 1490.19,2295.65 1489.27,2295.63 1487.99,2294.88"/>
    </edge>
    <edge id=":-4274_0" function="internal">
        <lane id=":-4274_0_0" index="0" speed="13.89" length="4.82" shape="1467.68,2174.82 1468.35,2173.48 1469.11,2172.97 1469.98,2173.27 1470.96,2174.40"/>
    </edge>
    <edge id=":-4440_0" function="internal">
        <lane id=":-4440_0_0" index="0" speed="13.89" length="4.82" shape="1382.61,2289.36 1382.75,2290.84 1382.37,2291.68 1381.47,2291.88 1380.05,2291.44"/>
    </edge>
    <edge id=":-4514_0" function="internal">
        <lane id=":-4514_0_0" index="0" speed="13.89" length="4.82" shape="999.60,2295.35 999.36,2296.82 998.77,2297.53 997.85,2297.49 996.59,2296.70"/>
    </edge>
    <edge id=":-4560_0" function="internal">
        <lane id=":-4560_0_0" index="0" speed="13.89" length="4.82" shape="1064.49,2305.36 1063.25,2306.18 1062.33,2306.24 1061.73,2305.54 1061.45,2304.08"/>
    </edge>
    <edge id=":-4562_0" function="internal">
        <lane id=":-4562_0_0" index="0" speed="13.89" length="4.82" shape="1080.37,2259.05 1081.61,2258.23 1082.53,2258.17 1083.13,2258.87 1083.41,2260.33"/>
    </edge>
    <edge id=":-4584_0" function="internal">
        <lane id=":-4584_0_0" index="0" speed="13.89" length="4.82" shape="1092.72,2201.59 1094.07,2202.22 1094.61,2202.97 1094.32,2203.85 1093.22,2204.85"/>
    </edge>
    <edge id=":-4592_0" function="internal">
        <lane id=":-4592_0_0" index="0" speed="13.89" length="4.24" shape="1044.63,2236.47 1043.93,2237.31 1043.12,2237.94 1042.18,2238.37 1041.11,2238.59"/>
    </edge>
    <edge id=":-4592_1" function="internal">
        <lane id=":-4592_1_0" index="0" speed="13.89" length="2.41" shape="1044.63,2236.47 1043.25,2237.03 1042.34,2236.91"/>
    </edge>
    <edge id=":-4592_4" function="internal">
        <lane id=":-4592_4_0" index="0" speed="13.89" length="2.41" shape="1042.34,2236.91 1041.89,2236.11 1041.90,2234.62"/>
    </edge>
    <edge id=":-4592_2" function="internal">
        <lane id=":-4592_2_0" index="0" speed="13.89" length="1.38" shape="1040.75,2235.31 1041.10,2235.24 1041.40,2235.10 1041.67,2234.89 1041.90,2234.62"/>
    </edge>
    <edge id=":-4592_3" function="internal">
        <lane id=":-4592_3_0" index="0" speed="13.89" length="2.41" shape="1040.75,2235.31 1042.07,2236.00 1042.57,2236.77"/>
    </edge>
    <edge id=":-4592_5" function="internal">
        <lane id=":-4592_5_0" index="0" speed="13.89" length="2.41" shape="1042.57,2236.77 1042.25,2237.64 1041.11,2238.59"/>
    </edge>
    <edge id=":-4642_0" function="internal">
        <lane id=":-4642_0_0" index="0" speed="13.89" length="5.12" shape="1412.18,2234.77 1411.96,2236.08 1411.45,2237.20 1410.64,2238.13 1409.53,2238.87"/>
    </edge>
    <edge id=":-4642_1" function="internal">
        <lane id=":-4642_1_0" index="0" speed="13.89" length="2.41" shape="1412.18,2234.77 1411.30,2235.96 1410.45,2236.33"/>
    </edge>
    <edge id=":-4642_4" function="internal">