<?xml version="1.0" encoding="UTF-8"?>

<!-- generated on 10/09/15 12:08:25 by SUMO duarouter Version 0.22.0
<?xml version="1.0" encoding="UTF-8"?>

<configuration xmlns:xsi="http://www.w3.org/2001/XMLSchema-instance" xsi:noNamespaceSchemaLocation="http://sumo.dlr.de/xsd/duarouterConfiguration.xsd">

    <input>
        <net-file value="zone3.net.xml"/>
        <trip-files value="trips.trips.xml"/>
    </input>

    <output>
        <output-file value="zone3.rou3.xml"/>
    </output>

    <processing>
        <ignore-errors value="true"/>
    </processing>

    <time>
        <begin value="0.0"/>
        <end value="2700.0"/>
    </time>

    <report>
        <no-step-log value="true"/>
    </report>

</configuration>
-->

<routes xmlns:xsi="http://www.w3.org/2001/XMLSchema-instance" xsi:noNamespaceSchemaLocation="http://sumo.dlr.de/xsd/routes_file.xsd">
    <vehicle id="0" depart="0.00">
        <route edges="34433031#1 42431310#0 42431310#1 42431310#2 42431310#3 42431310#4 42431310#5 42431310#6 42431310#7 42431310#8 42431310#9 72438805#0 72438805#1 72438805#2 72438805#3 35786733 -40637#0 -40637#1 -40637#2 -40637#3 95091740#1 158785437#1 35777380 35777378#0 35777378#1 35777378#2 35777378#3 35777378#4 35769669#0 35835339"/>
    </vehicle>
    <vehicle id="1" depart="7.00">
        <route edges="--39649#1 -39643 -39641#0 -39641#1 -39637 -39639 34473200#5 34473200#6 42431310#3 42431310#4 42431310#5 42431310#6 42431310#7 42431310#8 42431310#9 72438805#0 72438805#1 72438805#2 72438805#3 35786733 -40637#0 -40637#1 -40637#2 -40637#3 95091740#1 158785437#1 35777380 35777378#0 35777378#1 35777378#2 35777378#3 35777378#4 34436912#0 34436912#1 34436912#2 35836578#0 35836578#1 35836578#2 -35836578#2"/>
    </vehicle>
    <vehicle id="2" depart="14.00">
        <route edges="-34436912#1 -34436912#0 -35777378#4 -35777378#3 -35777378#2 35769141#0 35769141#1 35835163#5 35835240 35835241#0 35835241#1 35835241#2 35835241#3 72438809 72438808#0 72438808#1 72438808#2 35988000 -42431310#9 -42431310#8 -42431310#7 -42431310#6 -42431310#5 -42431310#4 -42431310#3 -42431310#2 -42431310#1 -42431310#0 42431310#0"/>
    </vehicle>
    <vehicle id="3" depart="21.00">
        <route edges="-34435272#0 35772671 35772689 35772696#0 35772696#1 10023489 166301881 -23042428 -35836578#4 -35836578#3 -35836578#2 -35836578#1 -35836578#0 -34436912#2 -34436912#1 -34436912#0 -35777378#4 -35777378#3 -35777378#2 35769141#0 35769141#1 35835163#5 35835240 35835241#0 35835241#1 35835241#2 35835241#3 72438809 72438808#0 72438808#1 72438808#2 35988000 -42431310#9 -42431310#8 -42431310#7 -42431310#6 -42431310#5 -42431310#4 -42431310#3 -42431310#2 -42431310#1 -42431310#0 -30098092#4 -30098092#3 30098092#3"/>
    </vehicle>
    <vehicle id="4" depart="28.00">
        <route edges="35988007#3 -34437135#1 -34437135#0 30098092#1 30098092#2 30098092#3 30098092#4 42431310#0 42431310#1 42431310#2 42431310#3 42431310#4 42431310#5 42431310#6 42431310#7 42431310#8 42431310#9 72438805#0 72438805#1 72438805#2 72438805#3 35786733 -40637#0 -40637#1 -40637#2 -40637#3 95091740#1 158785437#1 35777380 35777378#0 35777378#1 -61413259#4 -61413259#3 -61413259#2 -61413259#1 -61413259#0 -35777672 -39269#0 --39267 -36202263#3 -36202263#2 -36202263#1 -36202263#0 35842431#0 35842431#1 35842496"/>
    </vehicle>
    <vehicle id="5" depart="35.00">
        <route edges="36226821#0 36226821#1 36226945#0 36226945#1 36227055#1 34435272#1 34435272#2 35842663#0 35842663#1 35842663#2 36202263#0 36202263#1 36202263#2 36202263#3 -39267 --39269#0 35777672 61413259#0 61413259#1 61413259#2 61413259#3 61413259#4 35769141#0 35769141#1 35835163#5 35835240 35835241#0 35835241#1 35835241#2 35835241#3 72438809 72438808#0 72438808#1 72438808#2"/>
    </vehicle>
    <vehicle id="6" depart="42.00">
        <route edges="75503612 10032034 10080610 10080608 35835163#0 35835163#1 35835163#2 35835163#3 35835163#4 35835163#5 35835240 35835241#0 35835241#1 35835241#2 72439587#0 72439587#1 36005898 10023045 35999399 158787555 158787552#0 158787552#1 -39729#0 -39731#0 -39731#1 -39731#2 -39731#3"/>
    </vehicle>
    <vehicle id="7" depart="49.00">
        <route edges="36226732#2 35773179 35842663#0 35842663#1 35842663#2 36202263#0 36202263#1 36202263#2 36202263#3 -39267 --39269#0 35777672 61413259#0 61413259#1 61413259#2 61413259#3 61413259#4 35769141#0 35769141#1 35835163#5 35835240 35835241#0 35835241#1 35835241#2 35835241#3 72438809 72438808#0 72438808#1 72438808#2 35988000 -42431310#9 -42431310#8 -42431310#7 -42431310#6 -42431310#5 -42431310#4 -42431310#3 -42431310#2 -42431310#1 -34778846#2 -34778846#1 -34778846#0 -39571#3 --39639 --39637 --39641#1 --39641#0 --39643 -39649#1 -39649#2 -39649#3 --39647#1 --39647#0"/>
    </vehicle>
    <vehicle id="8" depart="56.00">
        <route edges="-39715 -39717#2 -158787552#0 -158787555 -35999399 10023469 72438813#0 72438813#1 100164042 -40637#2 -40637#3 -40637#4 35786732 23203021#0 23203021#1 23203021#2 27594170#0 27594170#1 27594170#2 27594170#3 27594170#4 27594170#5 -10080608 -10080610 -10032034 -75503612 75503608 10080612#0 10080612#1 61494208 166301879#0 166301879#1 166301879#2 166301879#3 23051252#0 23051252#1"/>
    </vehicle>
    <vehicle id="9" depart="63.00">
        <route edges="34473250#7 30098092#0 30098092#1 30098092#2 30098092#3 30098092#4 42431310#0 42431310#1 42431310#2 42431310#3 42431310#4 42431310#5 42431310#6 42431310#7 42431310#8 42431310#9 72438805#0 72438805#1 72438805#2 72438805#3 35786733 -40637#0 -40637#1 -40637#2 -40637#3 95091740#1 158785437#1 35777380 35777378#0 35777378#1 -61413259#4 -61413259#3 -61413259#2 -61413259#1 -61413259#0 -35777672 -39269#0 --39267 -36202263#3 -36202263#2"/>
    </vehicle>
    <vehicle id="10" depart="70.00">
        <route edges="34473200#1 34473200#2 34473200#3 34473200#4 34473200#5 34473200#6 42431310#3 42431310#4 42431310#5 42431310#6 42431310#7 42431310#8 42431310#9 72438805#0 72438805#1 72438805#2 72438805#3 35786733 -40637#0 -40637#1 -40637#2 -40637#3 -40637#4 35786732 23203021#0 23203021#1 23203021#2 27594170#0 27594170#1 27594170#2 27594170#3 27594170#4 27594170#5 -10080608 -10080610 -10032034 -75503612 75503608 10080612#0 10080612#1 61494208 166301879#0 166301879#1 166301879#2 166301879#3 23051252#0 23051252#1"/>
    </vehicle>
    <vehicle id="11" depart="77.00">
        <route edges="-39647#0 -39647#1 --39649#3 -39651 -39657#2 --39635#2 --39635#1 --39635#0 --39633#0 34473200#3 34473200#4 34473200#5 34473200#6 42431310#3 42431310#4 42431310#5 42431310#6 42431310#7 42431310#8 42431310#9 72438805#0 72438805#1 72438805#2 72438805#3 35786733 -40637#0 -40637#1 -40637#2 -40637#3 95091740#1 158785437#1 35777380 35777378#0 35777378#1 -61413259#4 -61413259#3 -61413259#2 -61413259#1 -61413259#0 -35777672 -39269#0 --39267 -36202263#3 -36202263#2 -36202263#1 -36202263#0 35842431#0 35842431#1 35842430 35842451 36226732#0 36226732#1 36226732#2 36226756#0 36226521#0 36226521#1 36201455 35773068#1"/>
    </vehicle>
    <vehicle id="12" depart="84.00">
        <route edges="35842431#0 35842431#1 35842496 35842663#1 35842663#2 36202263#0 36202263#1 36202263#2 36202263#3 -39267 --39269#0 35777672 61413259#0 61413259#1 61413259#2 61413259#3 61413259#4 35769141#0 35769141#1 35835163#5 35835240 35835241#0 35835241#1 35835241#2 35835241#3 72438809 72438808#0 72438808#1 72438808#2 35988000 -42431310#9 -42431310#8 -42431310#7 -42431310#6 -42431310#5 -42431310#4 -42431310#3 -42431310#2 -42431310#1 -34778846#2 -34778846#1 -34778846#0 -39571#3 --39639 --39637 --39641#1 -39649#0"/>
    </vehicle>
    <vehicle id="13" depart="91.00">
        <route edges="35772520#1 35772577 35836542#4 35836542#5 35836542#6 10023489 166301881 -23042428 -35836578#4 -35836578#3 -35836578#2 -35836578#1 -35836578#0 -34436912#2 -34436912#1 -34436912#0 -35777378#4 -35777378#3 -35777378#2 35769141#0 35769141#1 35835163#5 35835240 35835241#0 35835241#1 35835241#2 35835241#3 72438809 72438808#0 72438808#1 72438808#2 35988000 -42431310#9 -42431310#8 -42431310#7 -42431310#6 -42431310#5 -42431310#4 -42431310#3 -42431310#2 -42431310#1 -34778846#2 -34778846#1 -34778846#0 -39571#3 --39639 --39637 --39641#1 --39641#0 --39643 -39649#1 -39649#2 -39651 -39657#2 -39657#3 -39627#0 -39627#1 34473200#0"/>
    </vehicle>
    <vehicle id="14" depart="98.00">
        <route edges="--39635#0 --39633#0 34473200#3 34473200#4 34473200#5 34473200#6 42431310#3 42431310#4 42431310#5 42431310#6 42431310#7 42431310#8 42431310#9 72438805#0 72438805#1 72438805#2 72438805#3 35786733 -40637#0 -40637#1 -40637#2 -40637#3 95091740#1 158785437#1 35777380 35777378#0 35777378#1 -61413259#4 -61413259#3 -61413259#2 -61413259#1 -61413259#0 -35777672 -39269#0 --39267 -36202263#3 -36202263#2 -36202263#1 36202263#1"/>
    </vehicle>
    <vehicle id="16" depart="112.00">
        <route edges="--39237 35842431#1 35842496 35842663#1 35842663#2 36202263#0 36202263#1 36202263#2 36202263#3 -39267 --39269#0 35777672 61413259#0 61413259#1 61413259#2 61413259#3 61413259#4 35769141#0 35769141#1 35835163#5 35835240 35835241#0 35835241#1 35835241#2 35835241#3 72438809 72438808#0 72438808#1 72438808#2 35988007#0 35988007#1 35988007#2 35988007#3 -34437135#1"/>
    </vehicle>
    <vehicle id="17" depart="119.00">
        <route edges="-39651 -39657#2 --39635#2 --39635#1 --39635#0 --39633#0 34473200#3 34473200#4 34473200#5 34473200#6 42431310#3 42431310#4 42431310#5 42431310#6 42431310#7 42431310#8 42431310#9 72438805#0 72438805#1 72438805#2 72438805#3 35786733 -40637#0 -40637#1 -40637#2 -40637#3 95091740#1 158785437#1 35777380 35777378#0 35777378#1 -61413259#4 -61413259#3 -61413259#2 -61413259#1 --39275 -39269#3 -39269#4 -39269#5 -39269#6 -39283"/>
    </vehicle>
    <vehicle id="18" depart="126.00">
        <route edges="166301879#2 166301879#3 166301879#4 75503615 10056934 75503614 75503611#0 75503611#1 -75503608 75503612 10032034 10080610 10080608 35835163#0 35835163#1 35835163#2 35835163#3 35835163#4 35835163#5 35835240 35835241#0 35835241#1 35835241#2 35835241#3 72438809 72438808#0 72438808#1 72438808#2 35988007#0 35988007#1 35988007#2"/>
    </vehicle>
    <vehicle id="20" depart="140.00">
        <route edges="-39647#0 -39647#1 --39649#3 -39651 -39657#2 --39635#2 --39635#1 --39635#0 --39633#0 34473200#3 34473200#4 34473200#5 34473200#6 42431310#3 42431310#4 42431310#5 42431310#6 42431310#7 42431310#8 42431310#9 72438805#0 72438805#1 72438805#2 72438805#3 35786733 -40637#0 -40637#1 -40637#2 -40637#3 95091740#1 158785437#1 35777380 35777378#0 35777378#1 -61413259#4 -61413259#3 -61413259#2 -61413259#1 -61413259#0 -35777672 -39269#0 --39267 -36202263#3 -36202263#2 -36202263#1 -36202263#0 35842431#0 35842431#1 35842496 35842663#1 35842663#2"/>
    </vehicle>
    <vehicle id="21" depart="147.00">
        <route edges="36198924#2 61413259#0 61413259#1 61413259#2 61413259#3 61413259#4 35769141#0 35769141#1 35835163#5 35835240 35835241#0 35835241#1 35835241#2 35835241#3 72438809 72438808#0 72438808#1 72438808#2 35988000 -42431310#9 -42431310#8 -42431310#7 -42431310#6 -42431310#5 -42431310#4 -42431310#3 -42431310#2 -42431310#1 -42431310#0 34433079#0 34433079#1 -34778797#1"/>
    </vehicle>
    <vehicle id="22" depart="154.00">
        <route edges="-35999509#1 35999509#1 72438805#2 72438805#3 35786733 -40637#0 -40637#1 -40637#2 -40637#3 -40637#4 35786732 23203021#0 23203021#1 23203021#2 27594170#0 27594170#1 27594170#2 27594170#3 27594170#4 27594170#5 -10080608 -10080610 -10032034 -75503612 75503608 10080612#0 10080612#1 75503613 10056934 75503614 75503691 75503692#0 75503692#1 95091730 -10080614 -40717#0 -40709"/>
    </vehicle>
    <vehicle id="23" depart="161.00">
        <route edges="--39557 34433079#1 34778797#2 34778846#1 34778846#2 42431310#1 42431310#2 42431310#3 42431310#4 42431310#5 42431310#6 42431310#7 42431310#8 42431310#9 72438805#0 72438805#1 72438805#2 72438805#3 35786733 -40637#0 -40637#1 -40637#2 -40637#3 -40637#4 35786732 23203021#0 23203021#1 23203021#2 27594170#0 27594170#1 27594170#2 27594170#3 27594170#4 27594170#5 -10080608 -10080610 -10032034 -75503612 75503608 10080612#0 75503603 75503604 75503607 23051255 75503605#0"/>
    </vehicle>
    <vehicle id="24" depart="168.00">
        <route edges="166301880 -35836578#4 -35836578#3 -35836578#2 -35836578#1 -35836578#0 -34436912#2 -34436912#1 -34436912#0 -35777378#4 -35777378#3 -35777378#2 35769141#0 35769141#1 35835163#5 35835240 35835241#0 35835241#1 35835241#2 35835241#3 72438809 72438808#0 72438808#1 72438808#2 35988000 -42431310#9 -42431310#8 -42431310#7 -42431310#6 -42431310#5 -42431310#4 -42431310#3 -42431310#2 -42431310#1 -42431310#0 34433079#0 -39557"/>
    </vehicle>
    <vehicle id="25" depart="175.00">
        <route edges="--39281#1 --39279 -39277#1 --39269#3 -39275 61413259#1 61413259#2 61413259#3 61413259#4 35769141#0 35769141#1 35835163#5 35835240 35835241#0 35835241#1 35835241#2 35835241#3 72438809 72438808#0 72438808#1 72438808#2 35988000 -42431310#9 -42431310#8 -42431310#7 -42431310#6 -42431310#5 -42431310#4 -42431310#3 -42431310#2 -42431310#1 -34778846#2 -34778846#1 -34778846#0 -39571#3 --39639 --39637 --39641#1 --39641#0 --39643 -39649#1 -39649#2 -39651 -39657#2 --39635#2 --39635#1 -39631#1 -39633#2 -39577#0"/>
    </vehicle>
    <vehicle id="26" depart="182.00">
        <route edges="-39687#0 -39687#1 -39733 --39731#3 --39731#2 --39731#1 --39731#0 --39729#0 -35768624#1 -35768624#0 35999617#2 35999617#3 35999617#0 35999509#0 35999509#1 72438805#2 72438805#3 35786733 -40637#0 -40637#1 -40637#2 -40637#3 95091740#1 158785437#1 35777380 35777378#0 35777378#1 -61413259#4 -61413259#3 -61413259#2 -61413259#1 -61413259#0 -35777672 -39269#0 --39267 -36202263#3 -36202263#2 -36202263#1 -36202263#0 35842431#0 35842431#1 35842430 35842451"/>
    </vehicle>
    <vehicle id="27" depart="189.00">
        <route edges="-39641#1 -39637 -39639 34473200#5 34473200#6 42431310#3 42431310#4 42431310#5 42431310#6 42431310#7 42431310#8 42431310#9 72438805#0 72438805#1 72438805#2 72438805#3 35786733 -40637#0 -40637#1 -40637#2 -40637#3 -40637#4 35786732 23203021#0 23203021#1 23203021#2 27594170#0 27594170#1 27594170#2 27594170#3 27594170#4 27594170#5 -10080608 -10080610 -10032034 -75503612 75503608 10080612#0 10080612#1 61494208 166301879#0 166301879#1 166301879#2 166301879#3 23051252#0 23051252#1"/>
    </vehicle>
    <vehicle id="28" depart="196.00">
        <route edges="-39651 -39657#2 --39635#2 --39635#1 --39635#0 --39633#0 34473200#3 34473200#4 34473200#5 34473200#6 42431310#3 42431310#4 42431310#5 42431310#6 42431310#7 42431310#8 42431310#9 72438805#0 72438805#1 72438805#2 72438805#3 35786733 -40637#0 -40637#1 -40637#2 -40637#3 95091740#1 158785437#1 35777380 35777378#0 35777378#1 35777378#2 35777378#3 35777378#4 34436912#0 34436912#1 34436912#2 35836578#0 35836578#1 35836578#2 35836578#3 35836578#4 23042428 -166301881 -10023489 -35772696#1 35772792 35772520#0 35772520#1 35772520#2 35772520#3 36197574 27594182 27594178#0 27594178#1 35836542#0 35836542#1"/>
    </vehicle>
    <vehicle id="29" depart="203.00">
        <route edges="27618005 113431926 27584441 35772671 35772689 35772696#0 35772696#1 10023489 166301881 -23042428 -35836578#4 -35836578#3 -35836578#2 -35836578#1 -35836578#0 -34436912#2 -34436912#1 -34436912#0 -35777378#4 -35777378#3 -35777378#2 35769141#0 35769141#1 35835163#5 35835240 35835241#0 35835241#1 35835241#2 35835241#3 72438809 72438808#0 72438808#1 72438808#2 35988000 -42431310#9 -42431310#8 -42431310#7 36001610"/>
    </vehicle>
    <vehicle id="31" depart="217.00">
        <route edges="34473200#3 34473200#4 34473200#5 34473200#6 42431310#3 42431310#4 42431310#5 42431310#6 42431310#7 42431310#8 42431310#9 72438805#0 72438805#1 72438805#2 72438805#3 35786733 -40637#0 -40637#1 -40637#2 -40637#3 95091740#1 158785437#1 35777380 35777378#0 35777378#1 -61413259#4 -61413259#3 -61413259#2 -61413259#1 -61413259#0 -35777672 -39269#0 --39267 -36202263#3 -36202263#2 -36202263#1 -36202263#0 35842431#0 35842431#1 35842430 35842451 36226732#0 36226732#1 36226732#2 36226756#0 36226521#0 36226521#1 36226822 36226821#0 36226821#1 36226945#0 36227206#0 36227206#1"/>
    </vehicle>
    <vehicle id="32" depart="224.00">
        <route edges="42431310#1 42431310#2 42431310#3 42431310#4 42431310#5 42431310#6 42431310#7 42431310#8 42431310#9 72438805#0 72438805#1 72438805#2 72438805#3 35786733 -40637#0 -40637#1 -40637#2 -40637#3 -40637#4 35786732 23203021#0 23203021#1 23203021#2 27594170#0 27594170#1 27594170#2 27594170#3 27594170#4 27594170#5 -10080608 -10080610 -10032034 -75503612 75503608 10080612#0 75503603 75503604 75503607"/>
    </vehicle>
    <vehicle id="33" depart="231.00">
        <route edges="--39265#1 --39265#0 35842663#2 36202263#0 36202263#1 36202263#2 36202263#3 -39267 --39269#0 35777672 61413259#0 61413259#1 61413259#2 61413259#3 61413259#4 35769141#0 35769141#1 35835163#5 35835240 35835241#0 35835241#1 35835241#2 35835241#3 72438809 72438808#0 72438808#1 72438808#2 35988000 -42431310#9 -42431310#8 -42431310#7 -42431310#6 -42431310#5 -42431310#4 -42431310#3 -42431310#2 -42431310#1 -34778846#2 -34778846#1 -34778846#0 -39571#3 --39639 --39637 --39641#1 --39641#0 --39643 -39649#1 -39649#2 -39651 -39657#2 -39657#3 -39627#0 -39627#1 34473200#0 34473250#0 34473250#1 34473250#2"/>
    </vehicle>
    <vehicle id="34" depart="238.00">
        <route edges="-40707 -40713 -40711 10080614 27594166#0 27594166#1 27594166#2 27594166#3 10079357 35835163#1 35835163#2 35835163#3 35835163#4 35835163#5 35835240 35835241#0 35835241#1 35835241#2 35835241#3 72438809 72438808#0 72438808#1 72438808#2 35988000 72438805#0"/>
    </vehicle>
    <vehicle id="35" depart="245.00">
        <route edges="--39305#4 -39305#4 -39305#5 --39305#1 --39305#0 --39269#5 --39269#4 --39269#3 -39275 61413259#1 61413259#2 61413259#3 61413259#4 35769141#0 35769141#1 35835163#5 35835240 35835241#0 35835241#1 35835241#2 35835241#3 72438809 72438808#0 72438808#1 72438808#2 35988007#0 35988007#1 35988007#2 35988007#3"/>
    </vehicle>
    <vehicle id="36" depart="252.00">
        <route edges="72438805#2 72438805#3 35786733 -40637#0 -40637#1 -40637#2 -40637#3 -40637#4 35786732 23203021#0 23203021#1 23203021#2 27594170#0 27594170#1 27594170#2 27594170#3 27594170#4 27594170#5 -10080608 -10080610 -10032034 -75503612 75503608 10080612#0 10080612#1 61494208 166301879#0 166301879#1 166301879#2 166301879#3 23051252#0 23051252#1"/>
    </vehicle>
    <vehicle id="37" depart="259.00">
        <route edges="-39729#3 -39729#4 -39729#5 -39729#6 42431310#6 42431310#7 42431310#8 42431310#9 72438805#0 72438805#1 72438805#2 72438805#3 35786733 -40637#0 -40637#1 -40637#2 -40637#3 -40637#4 35786732 23203021#0 23203021#1 23203021#2 27594170#0 27594170#1 27594170#2 27594170#3 27594170#4 27594170#5 -10080608 -10080610 -10032034 -75503612 75503608 10080612#0 10080612#1 75503613"/>
    </vehicle>
    <vehicle id="38" depart="266.00">
        <route edges="35772689 35772696#0 35772696#1 10023489 166301881 -23042428 -35836578#4 -35836578#3 -35836578#2 -35836578#1 -35836578#0 -34436912#2 -34436912#1 -34436912#0 -35777378#4 -35777378#3 -35777378#2 35769141#0 35769141#1 35835163#5 35835240 35835241#0 35835241#1 35835241#2 35835241#3 72438809 72438808#0 72438808#1 72438808#2 35988000 -42431310#9 -42431310#8 -42431310#7 -42431310#6 -42431310#5 -42431310#4 -42431310#3 -42431310#2 -42431310#1 -42431310#0 -30098092#4 -35868778#5 -35868778#4 -35868778#3 -35868778#2 -35868778#1 35868778#1"/>
    </vehicle>
    <vehicle id="39" depart="273.00">
        <route edges="34473200#0 34473200#1 34473200#2 34473200#3 34473200#4 34473200#5 34473200#6 42431310#3 42431310#4 42431310#5 42431310#6 42431310#7 42431310#8 42431310#9 72438805#0 72438805#1 72438805#2 72438805#3 35786733 -40637#0 -40637#1 -40637#2 -40637#3 -40637#4 35786732 23203021#0 23203021#1 23203021#2 27594170#0 27594170#1 27594170#2 27594170#3 27594170#4 27594170#5 -10080608 -10080610 -10032034 -75503612 75503608 10080612#0 10080612#1 61494208 166301879#0 166301879#1 166301879#2 166301879#3 23051252#0 23051252#1 -75503605#1 35901598"/>
    </vehicle>
    <vehicle id="40" depart="280.00">
        <route edges="-35772696#1 35772696#1 10023489 166301881 -23042428 -35836578#4 -35836578#3 -35836578#2 -35836578#1 -35836578#0 -34436912#2 -34436912#1 -34436912#0 -35777378#4 -35777378#3 -35777378#2 35769141#0 35769141#1 35835163#5 35835240 35835241#0 35835241#1 35835241#2 35835241#3 72438809 72438808#0 72438808#1 72438808#2 35988000 -42431310#9 -42431310#8 -42431310#7 -42431310#6 -42431310#5 -42431310#4 -42431310#3 -42431310#2 -42431310#1 -34778846#2 -34778846#1 -34778846#0 -39571#3 --39639 --39637 --39641#1 --39641#0 --39643 -39649#1 -39649#2 -39651 -39657#2 --39635#2"/>
    </vehicle>
    <vehicle id="41" depart="287.00">
        <route edges="-40707 -40713 -40711 10080614 27594166#0 27594166#1 27594166#2 27594166#3 10079357 35835163#1 35835163#2 35835163#3 35835163#4 35835163#5 35835240 35835241#0 95091740#0 95091740#1 35769792#0 35769215#3 --39329#2 --39329#1 --39325#2 -39327 -39807"/>
    </vehicle>
    <vehicle id="42" depart="294.00">
        <route edges="34610232#1 34610232#2 34473200#4 34473200#5 34473200#6 42431310#3 42431310#4 42431310#5 42431310#6 42431310#7 42431310#8 42431310#9 72438805#0 72438805#1 72438805#2 72438805#3 35786733 -40637#0 -40637#1 -40637#2 -40637#3 95091740#1 158785437#1 35777380 35777378#0 35777378#1 35777378#2 35777378#3 35777378#4 34436912#0 34436912#1 34436912#2 35836578#0 35836578#1 35836578#2 35836578#3 35836578#4 23042428 -166301881 -10023489 -35772696#1 -35772696#0 -35772689 -35772671 -27584441 -113431926"/>
    </vehicle>
    <vehicle id="43" depart="301.00">
        <route edges="35772671 35772689 35772696#0 35772696#1 10023489 166301881 -23042428 -35836578#4 -35836578#3 -35836578#2 -35836578#1 -35836578#0 -34436912#2 -34436912#1 -34436912#0 -35777378#4 -35777378#3 -35777378#2 35769141#0 35769141#1 35835163#5 35835240 35835241#0 35835241#1 35835241#2 35835241#3 72438809 72438808#0 72438808#1 72438808#2 35988000 -42431310#9 -42431310#8 -42431310#7 -42431310#6 -42431310#5 -42431310#4 -42431310#3 -42431310#2 -42431310#1 -34778846#2 -34778846#1"/>
    </vehicle>
    <vehicle id="44" depart="308.00">
        <route edges="75503605#0 35901598 75503615 10056934 75503614 75503611#0 75503611#1 -75503608 75503612 10032034 10080610 10080608 35835163#0 35835163#1 35835163#2 35835163#3 35835163#4 35835163#5 35835240 35835241#0 35835241#1 35835241#2 72439587#0 72439587#1 36005898 10023045 35999399 158787555 158787552#0 158787552#1 -39729#0 -39731#0 -39731#1"/>
    </vehicle>
    <vehicle id="45" depart="315.00">
        <route edges="-35868778#6 30098092#4 42431310#0 42431310#1 42431310#2 42431310#3 42431310#4 42431310#5 42431310#6 42431310#7 42431310#8 42431310#9 72438805#0 72438805#1 72438805#2 72438805#3 35786733 -40637#0 -40637#1 -40637#2 -40637#3 95091740#1 158785437#1 35777380 35777378#0 35777378#1 -61413259#4 -61413259#3 -61413259#2 -61413259#1 -61413259#0 -35777672 -39269#0 --39267 -36202263#3 -36202263#2 -36202263#1 -36202263#0 35842431#0 35842431#1 35842496 35842663#1 35842663#2"/>
    </vehicle>
    <vehicle id="46" depart="322.00">
        <route edges="72438805#0 72438805#1 72438805#2 72438805#3 35786733 -40637#0 -40637#1 -40637#2 -40637#3 95091740#1 158785437#1 35777380 35777378#0 35777378#1 -61413259#4 -61413259#3 -61413259#2 -61413259#1 -61413259#0 -35777672 -39269#0 --39267 -36202263#3 -36202263#2 -36202263#1 -36202263#0 35842431#0 35842431#1 35842430 35842451 36226732#0 36226732#1"/>
    </vehicle>
    <vehicle id="47" depart="329.00">
        <route edges="-34778846#0 34778846#0 34778846#1 34778846#2 42431310#1 42431310#2 42431310#3 42431310#4 42431310#5 42431310#6 42431310#7 42431310#8 42431310#9 72438805#0 72438805#1 72438805#2 72438805#3 35786733 -40637#0 -40637#1 -40637#2 -40637#3 -40637#4 35786732 23203021#0 23203021#1 23203021#2 27594170#0 27594170#1 27594170#2 27594170#3 27594170#4 27594170#5 -10080608 -10080610 -10032034 -75503612 35835275#0"/>
    </vehicle>
    <vehicle id="48" depart="336.00">
        <route edges="35772491#0 35772491#1 35772491#2 27594170#5 -10080608 -10080610 -10032034 10032034 10080610 10080608 35835163#0 35835163#1 35835163#2 35835163#3 35835163#4 35835163#5 35835240 35835241#0 35835241#1 35835241#2 35835241#3 72438809 72438808#0 72438808#1 72438808#2 35988000 -42431310#9 -42431310#8 -42431310#7 -42431310#6 -42431310#5 -42431310#4 -42431310#3 -42431310#2 -42431310#1 -34778846#2 -34778846#1 -34778846#0 -39571#3 --39639 --39637 --39641#1 --39641#0 --39643 -39649#1 -39649#2 -39649#3 -39647#0"/>
    </vehicle>
    <vehicle id="49" depart="343.00">
        <route edges="23051254#0 23051254#1 75503611#0 75503611#1 -75503608 75503612 10032034 10080610 10080608 35835163#0 35835163#1 35835163#2 35835163#3 35835163#4 35835163#5 35835240 35835241#0 35835241#1 35835241#2 35835241#3 72438809 72438808#0"/>
    </vehicle>
    <vehicle id="50" depart="350.00">
        <route edges="-35868778#5 35868778#5 30098092#4 42431310#0 42431310#1 42431310#2 42431310#3 42431310#4 42431310#5 42431310#6 42431310#7 42431310#8 42431310#9 72438805#0 72438805#1 72438805#2 72438805#3 35786733 -40637#0 -40637#1 -40637#2 -40637#3 -40637#4 35786732 23203021#0 23203021#1 23203021#2 27594170#0 27594170#1 27594170#2 27594170#3 27594170#4 27594170#5 -10080608 -10080610 -10032034 -75503612 75503608 10080612#0 10080612#1 75503613 10056934 75503614 75503691 75503692#0 75503692#1 95091730 -10080614 -40717#0 -40709"/>
    </vehicle>
    <vehicle id="51" depart="357.00">
        <route edges="-36202263#4 -39267 --39269#0 35777672 61413259#0 61413259#1 61413259#2 61413259#3 61413259#4 35769141#0 35769141#1 35835163#5 35835240 35835241#0 35835241#1 35835241#2 35835241#3 72438809 72438808#0 72438808#1 72438808#2 35988000 -42431310#9 -42431310#8 -42431310#7 -42431310#6 -42431310#5 -42431310#4 -42431310#3 -42431310#2 -42431310#1 -42431310#0 34433079#0 34433079#1 34433079#2 -39567#0"/>
    </vehicle>
    <vehicle id="52" depart="364.00">
        <route edges="34610232#0 35868778#0 35868778#1 35868778#2 35868778#3 35868778#4 35868778#5 30098092#4 42431310#0 42431310#1 42431310#2 42431310#3 42431310#4 42431310#5 42431310#6 42431310#7 42431310#8 42431310#9 72438805#0 72438805#1 72438805#2 72438805#3 35786733 -40637#0 -40637#1 -40637#2 -40637#3 -40637#4 35786732 23203021#0 23203021#1 23203021#2 27594170#0 27594170#1 27594170#2 27594170#3 27594170#4 27594170#5 -10080608 -10080610 -10032034 -75503612 75503612"/>
    </vehicle>
    <vehicle id="53" depart="371.00">
        <route edges="-39633#1 --39633#1 --39633#0 34473200#3 34473200#4 34473200#5 34473200#6 42431310#3 42431310#4 42431310#5 42431310#6 42431310#7 42431310#8 42431310#9 72438805#0 72438805#1 72438805#2 72438805#3 35786733 -40637#0 -40637#1 -40637#2 -40637#3 95091740#1 158785437#1 35777380 35777378#0 35777378#1 -61413259#4 -61413259#3 -61413259#2 -61413259#1 --39275 --39269#2 --39271#1 --39271#0"/>
    </vehicle>
    <vehicle id="55" depart="385.00">
        <route edges="42431310#0 42431310#1 42431310#2 42431310#3 42431310#4 42431310#5 42431310#6 42431310#7 42431310#8 42431310#9 72438805#0 72438805#1 72438805#2 72438805#3 35786733 -40637#0 -40637#1 -40637#2 -40637#3 95091740#1 158785437#1 35777380 35777378#0 35777378#1 35777378#2 35777378#3 35777378#4 34436912#0 34436912#1 34436912#2 35836578#0 35836578#1 35836578#2 -35836578#2"/>
    </vehicle>
    <vehicle id="56" depart="392.00">
        <route edges="-113431926 113431926 27584441 35772671 35772689 35772696#0 35772696#1 10023489 166301881 -23042428 -35836578#4 -35836578#3 -35836578#2 -35836578#1 -35836578#0 -34436912#2 -34436912#1 -34436912#0 -35777378#4 -35777378#3 -35777378#2 35769141#0 35769141#1 35835163#5 35835240 35835241#0 35835241#1 35835241#2 35835241#3 72438809 72438808#0 72438808#1 72438808#2 35988000 -42431310#9 -42431310#8 -42431310#7 -42431310#6 -42431310#5 -42431310#4 -42431310#3 -42431310#2 -42431310#1 -34778846#2 -34778846#1 -34778846#0 -39571#3 --39639 --39637 --39641#1 --39641#0 --39643 -39649#1 -39649#2 -39651 -39657#2 -39657#3 --39657#3"/>
    </vehicle>
    <vehicle id="57" depart="399.00">
        <route edges="-34435272#1 34435272#1 34435272#2 35842663#0 35842663#1 35842663#2 36202263#0 36202263#1 36202263#2 36202263#3 -39267 --39269#0 35777672 61413259#0 61413259#1 61413259#2 61413259#3 61413259#4 35769141#0 35769141#1 35835163#5 35835240 35835241#0 35835241#1 35835241#2 35835241#3 72438809 72438808#0 72438808#1 72438808#2 35988000 -42431310#9 -42431310#8 -42431310#7 -42431310#6 -42431310#5 -42431310#4 -42431310#3 -42431310#2 -42431310#1 -42431310#0 -30098092#4 -30098092#3 30098092#3"/>
    </vehicle>
    <vehicle id="58" depart="406.00">
        <route edges="--39629 --39635#1 --39635#0 --39633#0 34473200#3 34473200#4 34473200#5 34473200#6 42431310#3 42431310#4 42431310#5 42431310#6 42431310#7 42431310#8 42431310#9 72438805#0 72438805#1 72438805#2 72438805#3 35786733 -40637#0 -40637#1 -40637#2 -40637#3 95091740#1 158785437#1 35777380 35777378#0 35777378#1 -61413259#4 -61413259#3 -61413259#2 -61413259#1 -61413259#0 -35777672 -39269#0 --39267 -36202263#3 -36202263#2 -36202263#1 -36202263#0 35842431#0 35842431#1 35842430 35842451 36226732#0 36226732#1 36226732#2 36226756#0 36226756#1"/>
    </vehicle>
    <vehicle id="59" depart="413.00">
        <route edges="-39825 -39841#1 -39811 -39815#1 -39823#0 --39819#1 --39819#0 -39337#0 -39337#1 -39337#2 35777660#5 35777660#6 35777660#0 35777660#1 -39331 -39329#0 -39329#1 -39329#2 -39329#3 35860181 100164042 -40637#2 -40637#3 95091740#1 158785437#1 35777380 35777378#0 35777378#1 35777378#2 35777378#3 35777378#4 34436912#0 34436912#1 34436912#2 35836578#0 35836578#1 35836578#2 35836578#3 35836578#4 23042428 -166301881 -10023489 -35772696#1 -35772696#0 -35772689 -35772671 -27584441 -113431926 10022935 34435254 35842748#0 35842748#1 151151441"/>
    </vehicle>
    <vehicle id="61" depart="427.00">